FoamFile
{
    version     2.0;
    format      ascii;
    class       volScalarField;
    location    "0";
    object      T;
}
// * * * * * * * * * * * * * * * * * * * * * * * * * * * * * * * * * * * * * //

dimensions      [0 0 0 1 0 0 0];


internalField   uniform 0;

boundaryField
{
    interface
    {
        type            fixedValue;
        value           uniform 2;
    }
    DirichletBoundary2
    {
        type            groovyBC;
        variables       "val=1+pow(pos().x,2)+(3*pow(pos().y,2))+1.3*time();grad=(6*pos().y);";
        fractionExpression "(true) ? 0 : 1";
        valueExpression "val";
        gradientExpression "grad";
        value           uniform 0;
        evaluateDuringConstruction 1;
    }


    DirichletBoundary
    {
        type            groovyBC;
        variables       "val=1+pow(pos().x,2)+(3*pow(pos().y,2))+1.3*time();grad=(2*pos().x);";
        fractionExpression "(true) ? 0 : 1";
        valueExpression "val";
        gradientExpression "grad";
        value           uniform 0;
        evaluateDuringConstruction 1;
    }

    defaultFaces
    {
        type            empty;
    }
}

// ************************************************************************* //
